.586
.model flat, c
.stack 100h
.data

.code


doit proc

	;this is a comment
	; 8 + 4 - 2 + 3

	mov eax, 8
	mov ebx, 4
	mov ecx, 2
	mov edx, 3

	add ebx, eax
	sub ebx, ecx
	add edx, ebx	

doit endp

end